Version 4
SHEET 1 1268 680
WIRE 96 -160 -16 -160
WIRE 240 -160 192 -160
WIRE 256 -160 240 -160
WIRE 336 -160 256 -160
WIRE 384 -160 336 -160
WIRE 560 -160 480 -160
WIRE -16 -80 -16 -160
WIRE 256 -64 256 -160
WIRE 176 48 176 -112
WIRE 240 48 176 48
WIRE 256 48 256 0
WIRE 256 48 240 48
WIRE 400 48 400 -112
WIRE 400 48 256 48
WIRE 560 48 560 -160
WIRE 256 80 256 48
WIRE 336 80 336 -160
WIRE -16 208 -16 0
WIRE 256 208 256 160
WIRE 256 208 -16 208
WIRE 288 208 256 208
WIRE 336 208 336 160
WIRE 336 208 288 208
WIRE 560 208 560 128
WIRE 560 208 336 208
WIRE 288 224 288 208
FLAG 288 224 0
FLAG 240 -160 VZ+
FLAG 240 48 VZ-
SYMBOL AutoGenerated\\SMAZ12 256 -32 R270
SYMATTR InstName U1
SYMBOL pmos 96 -112 R270
SYMATTR InstName M1
SYMBOL pmos 480 -112 M270
SYMATTR InstName M2
SYMBOL res 240 64 R0
SYMATTR InstName R1
SYMATTR Value 100k
SYMBOL res 320 64 R0
SYMATTR InstName R2
SYMATTR Value 100k
SYMBOL voltage -16 -96 R0
WINDOW 123 0 0 Left 0
WINDOW 39 0 0 Left 0
SYMATTR InstName V1
SYMATTR Value 23.7
SYMBOL res 544 32 R0
SYMATTR InstName R3
SYMATTR Value 1k
TEXT -50 248 Left 2 !.tran 40u startup
TEXT -48 296 Left 2 !.lib C:\\Users\\kenny\\Downloads\\Zener Diodes.spice.txt
TEXT 752 -104 Left 2 !.SUBCKT SMAZ12  1 2\n*        Terminals    A   K\nD1 1 2 DF\nDZ 3 1 DR\nVZ 2 3 11.2\n.MODEL DF D ( IS=2.51p RS=.0780 N=1.15\n+ CJO=100p VJ=0.750 M=0.330 TT=50.1n )\n.MODEL DR D ( IS=5.02f RS=0.65 N=1 )\n.ENDS\n.SIMULATOR DEFAULT
